Circuit: * C:\Users\wayne\Desktop\Engineering\Skripsie\Draft1.asc

.OP point found by inspection.

Date: Sun Aug 27 12:41:52 2023
Total elapsed time: 0.043 seconds.

tnom = 27
temp = 27
method = modified trap
totiter = 2114
traniter = 2114
tranpoints = 1058
accept = 1057
rejected = 1
matrix size = 27
fillins = 0
solver = Normal
Matrix Compiler1: 1.23 KB object code size  0.2/0.1/[0.1]
Matrix Compiler2: 1.86 KB object code size  0.1/0.2/[0.1]

